Version 4
SHEET 1 1412 708
WIRE 592 -48 416 -48
WIRE 592 -16 592 -48
WIRE 544 0 496 0
WIRE -16 96 -80 96
WIRE 48 96 -16 96
WIRE 352 112 336 112
WIRE 384 112 352 112
WIRE 448 112 384 112
WIRE 496 112 496 0
WIRE 496 112 448 112
WIRE 48 128 0 128
WIRE 592 128 592 80
WIRE 656 128 592 128
WIRE 672 128 656 128
WIRE 592 160 592 128
WIRE 352 208 352 112
WIRE 352 208 32 208
WIRE -432 240 -448 240
WIRE -416 240 -432 240
WIRE 496 240 496 112
WIRE 544 240 496 240
WIRE -432 272 -432 240
WIRE 592 272 592 256
WIRE 448 320 448 112
WIRE 592 320 448 320
WIRE -592 336 -608 336
WIRE -576 336 -592 336
WIRE 0 352 0 128
WIRE 352 352 0 352
WIRE 592 352 592 320
WIRE -592 368 -592 336
WIRE 544 368 496 368
WIRE -432 384 -432 352
WIRE -432 464 -448 464
WIRE -416 464 -432 464
WIRE 32 464 32 208
WIRE 48 464 32 464
WIRE -592 480 -592 448
WIRE 352 480 352 352
WIRE 352 480 336 480
WIRE 384 480 352 480
WIRE 416 480 416 -48
WIRE 416 480 384 480
WIRE 496 480 496 368
WIRE 496 480 416 480
WIRE -432 496 -432 464
WIRE -16 496 -80 496
WIRE 48 496 -16 496
WIRE 592 496 592 448
WIRE 656 496 592 496
WIRE 672 496 656 496
WIRE 592 528 592 496
WIRE -432 608 -432 576
WIRE 496 608 496 480
WIRE 544 608 496 608
WIRE 592 640 592 624
FLAG 592 400 VDD
FLAG 592 576 0
FLAG -592 480 0
FLAG -432 384 0
FLAG -432 608 0
FLAG 592 32 VDD
FLAG 592 208 0
FLAG 592 640 0
FLAG 592 272 0
FLAG -16 96 In1
FLAG -16 496 In2
FLAG 656 128 Out1
FLAG 656 496 Out2
FLAG -432 240 In1
FLAG -432 464 In2
FLAG -592 336 VDD
FLAG 384 112 NO1
FLAG 384 480 NO2
SYMBOL nmos4 544 528 R0
WINDOW 0 76 63 Left 2
WINDOW 3 76 27 Left 2
SYMATTR InstName MNO2
SYMATTR Value HEF4007n
SYMBOL pmos4 544 448 M180
WINDOW 0 62 18 Left 2
WINDOW 3 65 79 Left 2
SYMATTR InstName MPO2
SYMATTR Value HEF4007p
SYMBOL voltage -592 352 R0
WINDOW 123 0 0 Left 2
WINDOW 39 0 0 Left 2
SYMATTR InstName Vsupply
SYMATTR Value {VDD}
SYMBOL voltage -432 256 R0
WINDOW 123 0 0 Left 2
WINDOW 39 0 0 Left 2
WINDOW 3 24 44 Left 2
SYMATTR Value {VDD}
SYMATTR InstName Vin1
SYMBOL voltage -432 480 R0
WINDOW 123 0 0 Left 2
WINDOW 39 0 0 Left 2
WINDOW 3 24 44 Left 2
SYMATTR Value 0V
SYMATTR InstName Vin2
SYMBOL NAND 192 112 R0
SYMATTR InstName NAND1
SYMBOL NAND 192 480 R0
SYMATTR InstName NAND2
SYMBOL pmos4 544 80 M180
WINDOW 0 63 17 Left 2
WINDOW 3 64 80 Left 2
SYMATTR InstName MPO1
SYMATTR Value HEF4007p
SYMBOL nmos4 544 160 R0
WINDOW 0 76 63 Left 2
WINDOW 3 70 29 Left 2
SYMATTR InstName MNO1
SYMATTR Value HEF4007n
TEXT 168 608 Left 2 !.include MOS4007.txt
TEXT 96 -96 Left 5 ;arbiter
TEXT -64 584 Left 2 !.param VDD=5
TEXT -64 616 Left 2 !.global VDD
TEXT 344 504 Left 2 ;1 chip2
TEXT 600 -32 Left 2 ;11
TEXT 600 144 Left 2 ;12
TEXT 608 256 Left 2 ;9
TEXT 464 80 Left 2 ;10
TEXT 608 344 Left 2 ;11 chip2
TEXT 464 456 Left 2 ;10 chip 2
TEXT 608 464 Left 2 ;12 Chip 2
TEXT 608 624 Left 2 ;9 chip2
TEXT -360 624 Left 2 !.dc Vin1 0 {VDD} 1m
